<?xml version="1.0" encoding="UTF-8"?>

<!-- generated on 2026-05-20T10:06:58.517814+05:30 by Eclipse SUMO netconvert 1.26.0
<netconvertConfiguration xmlns:xsi="http://www.w3.org/2001/XMLSchema-instance" xsi:noNamespaceSchemaLocation="http://sumo.dlr.de/xsd/netconvertConfiguration.xsd">

    <input>
        <osm-files value="map.osm"/>
    </input>

    <output>
        <output-file value="intersection.net.xml"/>
    </output>

    <projection>
        <proj.utm value="true"/>
    </projection>

    <processing>
        <geometry.remove value="true"/>
        <roundabouts.guess value="true"/>
    </processing>

    <tls_building>
        <tls.set value="10023576781"/>
        <tls.default-type value="static"/>
    </tls_building>

    <edge_removal>
        <keep-edges.by-vclass value="passenger"/>
        <remove-edges.by-vclass value="hov,taxi,bus,delivery,bicycle,pedestrian,tram,coach"/>
    </edge_removal>

    <junctions>
        <no-turnarounds value="true"/>
        <junctions.join value="true"/>
    </junctions>

</netconvertConfiguration>
-->

<net version="1.20" junctionCornerDetail="5" limitTurnSpeed="5.50" xmlns:xsi="http://www.w3.org/2001/XMLSchema-instance" xsi:noNamespaceSchemaLocation="http://sumo.dlr.de/xsd/net_file.xsd">

    <location netOffset="-777370.22,-1441451.08" convBoundary="0.00,0.00,776.53,987.00" origBoundary="77.557377,13.024291,77.568886,13.035246" projParameter="+proj=utm +zone=43 +ellps=WGS84 +datum=WGS84 +units=m +no_defs"/>

    <type id="highway.residential" priority="3" numLanes="1" speed="13.89" disallow="tram rail_urban rail rail_electric rail_fast ship container cable_car subway aircraft wheelchair scooter drone" oneway="0"/>
    <type id="highway.secondary" priority="11" numLanes="1" speed="27.78" disallow="tram rail_urban rail rail_electric rail_fast ship container cable_car subway aircraft wheelchair scooter drone" oneway="0"/>
    <type id="highway.tertiary" priority="10" numLanes="1" speed="22.22" disallow="tram rail_urban rail rail_electric rail_fast ship container cable_car subway aircraft wheelchair scooter drone" oneway="0"/>

    <edge id=":10023576775_0" function="internal">
        <lane id=":10023576775_0_0" index="0" disallow="tram rail_urban rail rail_electric rail_fast ship container cable_car subway aircraft wheelchair scooter drone" speed="6.42" length="9.04" shape="385.57,653.08 385.04,650.65 383.85,649.00 382.02,648.14 379.53,648.07"/>
    </edge>
    <edge id=":10023576775_1" function="internal">
        <lane id=":10023576775_1_0" index="0" disallow="tram rail_urban rail rail_electric rail_fast ship container cable_car subway aircraft wheelchair scooter drone" speed="8.06" length="14.28" shape="385.57,653.08 385.83,649.14 387.26,646.23 389.86,644.32 393.63,643.44"/>
    </edge>
    <edge id=":10023576775_2" function="internal">
        <lane id=":10023576775_2_0" index="0" disallow="tram rail_urban rail rail_electric rail_fast ship container cable_car subway aircraft wheelchair scooter drone" speed="6.58" length="9.17" shape="393.90,646.63 391.50,647.20 389.84,648.42 388.93,650.30 388.76,652.84"/>
    </edge>
    <edge id=":10023576775_3" function="internal">
        <lane id=":10023576775_3_0" index="0" disallow="tram rail_urban rail rail_electric rail_fast ship container cable_car subway aircraft wheelchair scooter drone" speed="13.89" length="14.45" shape="393.90,646.63 379.53,648.07"/>
    </edge>
    <edge id=":10023576775_4" function="internal">
        <lane id=":10023576775_4_0" index="0" disallow="tram rail_urban rail rail_electric rail_fast ship container cable_car subway aircraft wheelchair scooter drone" speed="13.89" length="14.53" shape="379.16,644.89 393.63,643.44"/>
    </edge>
    <edge id=":10023576775_5" function="internal">
        <lane id=":10023576775_5_0" index="0" disallow="tram rail_urban rail rail_electric rail_fast ship container cable_car subway aircraft wheelchair scooter drone" speed="7.93" length="4.20" shape="379.16,644.89 383.12,645.01 383.34,645.11"/>
    </edge>
    <edge id=":10023576775_6" function="internal">
        <lane id=":10023576775_6_0" index="0" disallow="tram rail_urban rail rail_electric rail_fast ship container cable_car subway aircraft wheelchair scooter drone" speed="7.93" length="10.15" shape="383.34,645.11 386.03,646.37 387.92,648.98 388.76,652.84"/>
    </edge>
    <edge id=":10023576780_0" function="internal">
        <lane id=":10023576780_0_0" index="0" disallow="tram rail_urban rail rail_electric rail_fast ship container cable_car subway aircraft wheelchair scooter drone" speed="13.89" length="14.13" shape="487.25,590.67 473.33,593.08"/>
    </edge>
    <edge id=":10023576780_1" function="internal">
        <lane id=":10023576780_1_0" index="0" disallow="tram rail_urban rail rail_electric rail_fast ship container cable_car subway aircraft wheelchair scooter drone" speed="8.13" length="3.81" shape="487.25,590.67 483.44,590.67"/>
    </edge>
    <edge id=":10023576780_6" function="internal">
        <lane id=":10023576780_6_0" index="0" disallow="tram rail_urban rail rail_electric rail_fast ship container cable_car subway aircraft wheelchair scooter drone" speed="8.13" length="10.31" shape="483.44,590.67 480.48,589.46 478.36,587.02 477.09,583.36"/>
    </edge>
    <edge id=":10023576780_2" function="internal">
        <lane id=":10023576780_2_0" index="0" disallow="tram rail_urban rail rail_electric rail_fast ship container cable_car subway aircraft wheelchair scooter drone" speed="6.66" length="9.14" shape="480.23,582.74 481.05,585.12 482.42,586.71 484.33,587.50 486.79,587.50"/>
    </edge>
    <edge id=":10023576780_3" function="internal">
        <lane id=":10023576780_3_0" index="0" disallow="tram rail_urban rail rail_electric rail_fast ship container cable_car subway aircraft wheelchair scooter drone" speed="8.00" length="14.17" shape="480.23,582.74 480.44,586.62 479.36,589.63 476.99,591.79 473.33,593.08"/>
    </edge>
    <edge id=":10023576780_4" function="internal">
        <lane id=":10023576780_4_0" index="0" disallow="tram rail_urban rail rail_electric rail_fast ship container cable_car subway aircraft wheelchair scooter drone" speed="6.51" length="9.02" shape="472.70,589.94 475.03,589.12 476.54,587.75 477.23,585.83 477.09,583.36"/>
    </edge>
    <edge id=":10023576780_5" function="internal">
        <lane id=":10023576780_5_0" index="0" disallow="tram rail_urban rail rail_electric rail_fast ship container cable_car subway aircraft wheelchair scooter drone" speed="13.89" length="14.30" shape="472.70,589.94 486.79,587.50"/>
    </edge>
    <edge id=":10023576781_0" function="internal">
        <lane id=":10023576781_0_0" index="0" disallow="tram rail_urban rail rail_electric rail_fast ship container cable_car subway aircraft wheelchair scooter drone" speed="6.69" length="9.38" shape="473.46,565.03 472.61,562.62 471.20,561.04 469.21,560.27 466.64,560.33"/>
    </edge>
    <edge id=":10023576781_1" function="internal">
        <lane id=":10023576781_1_0" index="0" disallow="tram rail_urban rail rail_electric rail_fast ship container cable_car subway aircraft wheelchair scooter drone" speed="13.89" length="14.62" shape="473.46,565.03 470.57,550.71"/>
    </edge>
    <edge id=":10023576781_2" function="internal">
        <lane id=":10023576781_2_0" index="0" disallow="tram rail_urban rail rail_electric rail_fast ship container cable_car subway aircraft wheelchair scooter drone" speed="7.94" length="4.07" shape="473.46,565.03 473.25,561.10 473.29,560.98"/>
    </edge>
    <edge id=":10023576781_12" function="internal">
        <lane id=":10023576781_12_0" index="0" disallow="tram rail_urban rail rail_electric rail_fast ship container cable_car subway aircraft wheelchair scooter drone" speed="7.94" length="10.25" shape="473.29,560.98 474.36,558.08 476.80,555.98 480.55,554.79"/>
    </edge>
    <edge id=":10023576781_3" function="internal">
        <lane id=":10023576781_3_0" index="0" disallow="tram rail_urban rail rail_electric rail_fast ship container cable_car subway aircraft wheelchair scooter drone" speed="6.44" length="9.03" shape="481.08,557.95 478.71,558.70 477.17,560.02 476.47,561.93 476.60,564.41"/>
    </edge>
    <edge id=":10023576781_4" function="internal">
        <lane id=":10023576781_4_0" index="0" disallow="tram rail_urban rail rail_electric rail_fast ship container cable_car subway aircraft wheelchair scooter drone" speed="13.89" length="14.63" shape="481.08,557.95 466.64,560.33"/>
    </edge>
    <edge id=":10023576781_5" function="internal">
        <lane id=":10023576781_5_0" index="0" disallow="tram rail_urban rail rail_electric rail_fast ship container cable_car subway aircraft wheelchair scooter drone" speed="8.18" length="4.11" shape="481.08,557.95 477.15,558.04 476.98,557.97"/>
    </edge>
    <edge id=":10023576781_13" function="internal">
        <lane id=":10023576781_13_0" index="0" disallow="tram rail_urban rail rail_electric rail_fast ship container cable_car subway aircraft wheelchair scooter drone" speed="8.18" length="10.32" shape="476.98,557.97 474.09,556.86 471.89,554.41 470.57,550.71"/>
    </edge>
    <edge id=":10023576781_6" function="internal">
        <lane id=":10023576781_6_0" index="0" disallow="tram rail_urban rail rail_electric rail_fast ship container cable_car subway aircraft wheelchair scooter drone" speed="6.72" length="9.41" shape="473.70,550.06 474.57,552.48 476.00,554.08 477.99,554.85 480.55,554.79"/>
    </edge>
    <edge id=":10023576781_7" function="internal">
        <lane id=":10023576781_7_0" index="0" disallow="tram rail_urban rail rail_electric rail_fast ship container cable_car subway aircraft wheelchair scooter drone" speed="13.89" length="14.64" shape="473.70,550.06 476.60,564.41"/>
    </edge>
    <edge id=":10023576781_8" function="internal">
        <lane id=":10023576781_8_0" index="0" disallow="tram rail_urban rail rail_electric rail_fast ship container cable_car subway aircraft wheelchair scooter drone" speed="7.93" length="4.12" shape="473.70,550.06 473.94,554.01 473.88,554.17"/>
    </edge>
    <edge id=":10023576781_14" function="internal">
        <lane id=":10023576781_14_0" index="0" disallow="tram rail_urban rail rail_electric rail_fast ship container cable_car subway aircraft wheelchair scooter drone" speed="7.93" length="10.22" shape="473.88,554.17 472.84,557.03 470.41,559.14 466.64,560.33"/>
    </edge>
    <edge id=":10023576781_9" function="internal">
        <lane id=":10023576781_9_0" index="0" disallow="tram rail_urban rail rail_electric rail_fast ship container cable_car subway aircraft wheelchair scooter drone" speed="6.42" length="9.04" shape="466.12,557.18 468.49,556.43 470.03,555.10 470.72,553.19 470.57,550.71"/>
    </edge>
    <edge id=":10023576781_10" function="internal">
        <lane id=":10023576781_10_0" index="0" disallow="tram rail_urban rail rail_electric rail_fast ship container cable_car subway aircraft wheelchair scooter drone" speed="13.89" length="14.63" shape="466.12,557.18 480.55,554.79"/>
    </edge>
    <edge id=":10023576781_11" function="internal">
        <lane id=":10023576781_11_0" index="0" disallow="tram rail_urban rail rail_electric rail_fast ship container cable_car subway aircraft wheelchair scooter drone" speed="8.15" length="4.12" shape="466.12,557.18 470.06,557.09 470.23,557.15"/>
    </edge>
    <edge id=":10023576781_15" function="internal">
        <lane id=":10023576781_15_0" index="0" disallow="tram rail_urban rail rail_electric rail_fast ship container cable_car subway aircraft wheelchair scooter drone" speed="8.15" length="10.30" shape="470.23,557.15 473.12,558.26 475.30,560.70 476.60,564.41"/>
    </edge>
    <edge id=":10023576782_0" function="internal">
        <lane id=":10023576782_0_0" index="0" disallow="tram rail_urban rail rail_electric rail_fast ship container cable_car subway aircraft wheelchair scooter drone" speed="6.36" length="9.04" shape="465.92,528.10 465.07,525.74 463.68,524.28 461.74,523.71 459.26,524.04"/>
    </edge>
    <edge id=":10023576782_1" function="internal">
        <lane id=":10023576782_1_0" index="0" disallow="tram rail_urban rail rail_electric rail_fast ship container cable_car subway aircraft wheelchair scooter drone" speed="7.90" length="14.46" shape="465.92,528.10 465.68,524.10 466.80,521.06 469.27,518.99 473.10,517.87"/>
    </edge>
    <edge id=":10023576782_2" function="internal">
        <lane id=":10023576782_2_0" index="0" disallow="tram rail_urban rail rail_electric rail_fast ship container cable_car subway aircraft wheelchair scooter drone" speed="6.38" length="9.06" shape="473.55,521.04 471.15,521.74 469.60,523.04 468.90,524.95 469.05,527.45"/>
    </edge>
    <edge id=":10023576782_3" function="internal">
        <lane id=":10023576782_3_0" index="0" disallow="tram rail_urban rail rail_electric rail_fast ship container cable_car subway aircraft wheelchair scooter drone" speed="13.89" length="14.61" shape="473.55,521.04 469.91,521.62 466.35,522.30 462.83,523.10 459.26,524.04"/>
    </edge>
    <edge id=":10023576782_4" function="internal">
        <lane id=":10023576782_4_0" index="0" disallow="tram rail_urban rail rail_electric rail_fast ship container cable_car subway aircraft wheelchair scooter drone" speed="13.89" length="15.04" shape="458.40,520.96 462.03,520.01 465.70,519.17 469.39,518.46 473.10,517.87"/>
    </edge>
    <edge id=":10023576782_5" function="internal">
        <lane id=":10023576782_5_0" index="0" disallow="tram rail_urban rail rail_electric rail_fast ship container cable_car subway aircraft wheelchair scooter drone" speed="7.88" length="4.27" shape="458.40,520.96 462.37,520.44 462.62,520.51"/>
    </edge>
    <edge id=":10023576782_6" function="internal">
        <lane id=":10023576782_6_0" index="0" disallow="tram rail_urban rail rail_electric rail_fast ship container cable_car subway aircraft wheelchair scooter drone" speed="7.88" length="10.20" shape="462.62,520.51 465.47,521.35 467.70,523.68 469.05,527.45"/>
    </edge>
    <edge id=":10023586255_0" function="internal">
        <lane id=":10023586255_0_0" index="0" disallow="tram rail_urban rail rail_electric rail_fast ship container cable_car subway aircraft wheelchair scooter drone" speed="7.94" length="9.11" shape="394.37,364.48 393.77,362.60 393.86,360.56 394.64,358.37 396.10,356.01"/>
    </edge>
    <edge id=":10023586255_1" function="internal">
        <lane id=":10023586255_1_0" index="0" disallow="tram rail_urban rail rail_electric rail_fast ship container cable_car subway aircraft wheelchair scooter drone" speed="27.78" length="10.12" shape="390.08,364.15 396.10,356.01"/>
    </edge>
    <edge id=":10023586255_2" function="internal">
        <lane id=":10023586255_2_0" index="0" disallow="tram rail_urban rail rail_electric rail_fast ship container cable_car subway aircraft wheelchair scooter drone" speed="5.79" length="9.34" shape="390.08,364.15 392.22,361.78 394.13,360.80 395.79,361.20 397.21,363.00"/>
    </edge>
    <edge id=":13055276846_0" function="internal">
        <lane id=":13055276846_0_0" index="0" disallow="tram rail_urban rail rail_electric rail_fast ship container cable_car subway aircraft wheelchair scooter drone" speed="5.59" length="9.35" shape="470.10,266.33 468.80,263.78 467.29,262.78 465.57,263.33 463.62,265.42"/>
    </edge>
    <edge id=":13055276846_1" function="internal">
        <lane id=":13055276846_1_0" index="0" disallow="tram rail_urban rail rail_electric rail_fast ship container cable_car subway aircraft wheelchair scooter drone" speed="18.05" length="19.45" shape="470.10,266.33 468.54,262.17 466.59,257.26 464.57,252.39 462.77,248.32"/>
    </edge>
    <edge id=":13055276846_2" function="internal">
        <lane id=":13055276846_2_0" index="0" disallow="tram rail_urban rail rail_electric rail_fast ship container cable_car subway aircraft wheelchair scooter drone" speed="12.49" length="19.35" shape="470.10,266.33 469.26,261.82 469.45,256.61 470.54,251.58 472.44,247.61"/>
    </edge>
    <edge id=":13055276846_3" function="internal">
        <lane id=":13055276846_3_0" index="0" disallow="tram rail_urban rail rail_electric rail_fast ship container cable_car subway aircraft wheelchair scooter drone" speed="11.58" length="16.56" shape="475.04,249.48 473.03,253.10 472.04,256.94 472.06,260.99 473.11,265.26"/>
    </edge>
    <edge id=":13055276846_4" function="internal">
        <lane id=":13055276846_4_0" index="0" disallow="tram rail_urban rail rail_electric rail_fast ship container cable_car subway aircraft wheelchair scooter drone" speed="27.78" length="19.61" shape="475.04,249.48 463.62,265.42"/>
    </edge>
    <edge id=":13055276846_5" function="internal">
        <lane id=":13055276846_5_0" index="0" disallow="tram rail_urban rail rail_electric rail_fast ship container cable_car subway aircraft wheelchair scooter drone" speed="7.41" length="4.91" shape="475.04,249.48 471.68,253.05"/>
    </edge>
    <edge id=":13055276846_12" function="internal">
        <lane id=":13055276846_12_0" index="0" disallow="tram rail_urban rail rail_electric rail_fast ship container cable_car subway aircraft wheelchair scooter drone" speed="7.41" length="11.84" shape="471.68,253.05 471.60,253.13 468.41,254.16 465.47,252.56 462.77,248.32"/>
    </edge>
    <edge id=":13055276846_6" function="internal">
        <lane id=":13055276846_6_0" index="0" disallow="tram rail_urban rail rail_electric rail_fast ship container cable_car subway aircraft wheelchair scooter drone" speed="5.68" length="9.23" shape="465.68,246.97 467.16,249.31 468.78,250.20 470.54,249.63 472.44,247.61"/>
    </edge>
    <edge id=":13055276846_7" function="internal">
        <lane id=":13055276846_7_0" index="0" disallow="tram rail_urban rail rail_electric rail_fast ship container cable_car subway aircraft wheelchair scooter drone" speed="18.05" length="19.74" shape="465.68,246.97 467.49,251.08 469.55,256.05 471.54,261.06 473.11,265.26"/>
    </edge>
    <edge id=":13055276846_8" function="internal">
        <lane id=":13055276846_8_0" index="0" disallow="tram rail_urban rail rail_electric rail_fast ship container cable_car subway aircraft wheelchair scooter drone" speed="11.71" length="19.15" shape="465.68,246.97 466.73,251.22 466.67,256.29 465.61,261.31 463.62,265.42"/>
    </edge>
    <edge id=":13055276846_9" function="internal">
        <lane id=":13055276846_9_0" index="0" disallow="tram rail_urban rail rail_electric rail_fast ship container cable_car subway aircraft wheelchair scooter drone" speed="10.78" length="16.12" shape="461.02,263.56 463.13,259.81 464.13,256.01 464.01,252.18 462.77,248.32"/>
    </edge>
    <edge id=":13055276846_10" function="internal">
        <lane id=":13055276846_10_0" index="0" disallow="tram rail_urban rail rail_electric rail_fast ship container cable_car subway aircraft wheelchair scooter drone" speed="27.78" length="19.62" shape="461.02,263.56 472.44,247.61"/>
    </edge>
    <edge id=":13055276846_11" function="internal">
        <lane id=":13055276846_11_0" index="0" disallow="tram rail_urban rail rail_electric rail_fast ship container cable_car subway aircraft wheelchair scooter drone" speed="7.38" length="5.21" shape="461.02,263.56 464.56,259.74"/>
    </edge>
    <edge id=":13055276846_13" function="internal">
        <lane id=":13055276846_13_0" index="0" disallow="tram rail_urban rail rail_electric rail_fast ship container cable_car subway aircraft wheelchair scooter drone" speed="7.38" length="12.24" shape="464.56,259.74 464.65,259.65 467.88,258.63 470.70,260.50 473.11,265.26"/>
    </edge>
    <edge id=":3327057136_0" function="internal">
        <lane id=":3327057136_0_0" index="0" disallow="tram rail_urban rail rail_electric rail_fast ship container cable_car subway aircraft wheelchair scooter drone" speed="5.59" length="9.34" shape="486.75,315.19 485.63,312.56 484.19,311.45 482.43,311.88 480.34,313.83"/>
    </edge>
    <edge id=":3327057136_1" function="internal">
        <lane id=":3327057136_1_0" index="0" disallow="tram rail_urban rail rail_electric rail_fast ship container cable_car subway aircraft wheelchair scooter drone" speed="13.89" length="15.81" shape="486.75,315.19 482.10,300.08"/>
    </edge>
    <edge id=":3327057136_2" function="internal">
        <lane id=":3327057136_2_0" index="0" disallow="tram rail_urban rail rail_electric rail_fast ship container cable_car subway aircraft wheelchair scooter drone" speed="13.89" length="16.03" shape="485.12,299.00 489.83,314.33"/>
    </edge>
    <edge id=":3327057136_3" function="internal">
        <lane id=":3327057136_3_0" index="0" disallow="tram rail_urban rail rail_electric rail_fast ship container cable_car subway aircraft wheelchair scooter drone" speed="10.97" length="3.81" shape="485.12,299.00 485.66,302.31 485.59,302.76"/>
    </edge>
    <edge id=":3327057136_6" function="internal">
        <lane id=":3327057136_6_0" index="0" disallow="tram rail_urban rail rail_electric rail_fast ship container cable_car subway aircraft wheelchair scooter drone" speed="10.97" length="12.44" shape="485.59,302.76 485.05,305.88 483.28,309.72 480.34,313.83"/>
    </edge>
    <edge id=":3327057136_4" function="internal">
        <lane id=":3327057136_4_0" index="0" disallow="tram rail_urban rail rail_electric rail_fast ship container cable_car subway aircraft wheelchair scooter drone" speed="9.84" length="12.96" shape="477.88,311.79 480.34,308.40 481.87,305.32 482.46,302.54 482.10,300.08"/>
    </edge>
    <edge id=":3327057136_5" function="internal">
        <lane id=":3327057136_5_0" index="0" disallow="tram rail_urban rail rail_electric rail_fast ship container cable_car subway aircraft wheelchair scooter drone" speed="7.38" length="17.44" shape="477.88,311.79 481.77,308.14 485.06,307.35 487.75,309.41 489.83,314.33"/>
    </edge>
    <edge id=":3327057138_0" function="internal">
        <lane id=":3327057138_0_0" index="0" disallow="tram rail_urban rail rail_electric rail_fast ship container cable_car subway aircraft wheelchair scooter drone" speed="5.99" length="8.01" shape="408.93,344.54 407.88,343.38 407.69,341.83 408.37,339.88 409.92,337.52"/>
    </edge>
    <edge id=":3327057138_1" function="internal">
        <lane id=":3327057138_1_0" index="0" disallow="tram rail_urban rail rail_electric rail_fast ship container cable_car subway aircraft wheelchair scooter drone" speed="27.78" length="9.46" shape="404.20,345.06 409.92,337.52"/>
    </edge>
    <edge id=":3327057138_2" function="internal">
        <lane id=":3327057138_2_0" index="0" disallow="tram rail_urban rail rail_electric rail_fast ship container cable_car subway aircraft wheelchair scooter drone" speed="6.28" length="7.92" shape="404.20,345.06 405.99,342.99 407.66,341.76 409.22,341.38 410.66,341.85"/>
    </edge>
    <edge id=":3327061512_0" function="internal">
        <lane id=":3327061512_0_0" index="0" disallow="tram rail_urban rail rail_electric rail_fast ship container cable_car subway aircraft wheelchair scooter drone" speed="13.89" length="13.01" shape="401.66,513.48 401.09,510.10 400.30,507.14 399.24,504.26 397.83,501.12"/>
    </edge>
    <edge id=":3327061512_1" function="internal">
        <lane id=":3327061512_1_0" index="0" disallow="tram rail_urban rail rail_electric rail_fast ship container cable_car subway aircraft wheelchair scooter drone" speed="9.35" length="3.40" shape="401.66,513.48 401.71,510.08"/>
    </edge>
    <edge id=":3327061512_6" function="internal">
        <lane id=":3327061512_6_0" index="0" disallow="tram rail_urban rail rail_electric rail_fast ship container cable_car subway aircraft wheelchair scooter drone" speed="9.35" length="10.55" shape="401.71,510.08 402.81,507.05 404.96,504.40 408.15,502.12"/>
    </edge>
    <edge id=":3327061512_2" function="internal">
        <lane id=":3327061512_2_0" index="0" disallow="tram rail_urban rail rail_electric rail_fast ship container cable_car subway aircraft wheelchair scooter drone" speed="8.04" length="10.14" shape="409.72,504.91 407.34,506.59 405.73,508.51 404.89,510.67 404.83,513.07"/>
    </edge>
    <edge id=":3327061512_3" function="internal">
        <lane id=":3327061512_3_0" index="0" disallow="tram rail_urban rail rail_electric rail_fast ship container cable_car subway aircraft wheelchair scooter drone" speed="7.87" length="14.48" shape="409.72,504.91 405.98,506.36 402.76,506.21 400.04,504.46 397.83,501.12"/>
    </edge>
    <edge id=":3327061512_4" function="internal">
        <lane id=":3327061512_4_0" index="0" disallow="tram rail_urban rail rail_electric rail_fast ship container cable_car subway aircraft wheelchair scooter drone" speed="6.35" length="9.04" shape="400.72,499.76 402.10,501.84 403.80,502.93 405.81,503.03 408.15,502.12"/>
    </edge>
    <edge id=":3327061512_5" function="internal">
        <lane id=":3327061512_5_0" index="0" disallow="tram rail_urban rail rail_electric rail_fast ship container cable_car subway aircraft wheelchair scooter drone" speed="13.89" length="13.99" shape="400.72,499.76 402.17,503.05 403.34,506.25 404.22,509.53 404.83,513.07"/>
    </edge>
    <edge id=":3530570658_0" function="internal">
        <lane id=":3530570658_0_0" index="0" disallow="tram rail_urban rail rail_electric rail_fast ship container cable_car subway aircraft wheelchair scooter drone" speed="6.50" length="8.94" shape="550.24,635.06 547.81,635.41 546.07,636.45 545.02,638.17 544.66,640.58"/>
    </edge>
    <edge id=":3530570658_1" function="internal">
        <lane id=":3530570658_1_0" index="0" disallow="tram rail_urban rail rail_electric rail_fast ship container cable_car subway aircraft wheelchair scooter drone" speed="8.16" length="14.03" shape="550.24,635.06 546.43,634.54 543.62,632.97 541.82,630.34 541.02,626.65"/>
    </edge>
    <edge id=":3530570658_2" function="internal">
        <lane id=":3530570658_2_0" index="0" disallow="tram rail_urban rail rail_electric rail_fast ship container cable_car subway aircraft wheelchair scooter drone" speed="6.69" length="9.12" shape="544.22,626.43 544.73,628.81 545.91,630.51 547.74,631.53 550.23,631.86"/>
    </edge>
    <edge id=":3530570658_3" function="internal">
        <lane id=":3530570658_3_0" index="0" disallow="tram rail_urban rail rail_electric rail_fast ship container cable_car subway aircraft wheelchair scooter drone" speed="13.89" length="14.16" shape="544.22,626.43 544.66,640.58"/>
    </edge>
    <edge id=":3530570658_4" function="internal">
        <lane id=":3530570658_4_0" index="0" disallow="tram rail_urban rail rail_electric rail_fast ship container cable_car subway aircraft wheelchair scooter drone" speed="13.89" length="13.83" shape="541.46,640.47 541.02,626.65"/>
    </edge>
    <edge id=":3530570658_5" function="internal">
        <lane id=":3530570658_5_0" index="0" disallow="tram rail_urban rail rail_electric rail_fast ship container cable_car subway aircraft wheelchair scooter drone" speed="7.97" length="3.80" shape="541.46,640.47 542.03,636.71"/>
    </edge>
    <edge id=":3530570658_6" function="internal">
        <lane id=":3530570658_6_0" index="0" disallow="tram rail_urban rail rail_electric rail_fast ship container cable_car subway aircraft wheelchair scooter drone" speed="7.97" length="10.19" shape="542.03,636.71 543.68,634.03 546.41,632.41 550.23,631.86"/>
    </edge>
    <edge id=":426941437_0" function="internal">
        <lane id=":426941437_0_0" index="0" disallow="tram rail_urban rail rail_electric rail_fast ship container cable_car subway aircraft wheelchair scooter drone" speed="27.78" length="18.74" shape="457.41,274.10 454.24,276.96 449.88,279.58 445.51,282.20 442.29,285.02"/>
    </edge>
    <edge id=":426941437_1" function="internal">
        <lane id=":426941437_1_0" index="0" disallow="tram rail_urban rail rail_electric rail_fast ship container cable_car subway aircraft wheelchair scooter drone" speed="10.64" length="1.77" shape="457.41,274.10 456.13,275.33"/>
    </edge>
    <edge id=":426941437_7" function="internal">
        <lane id=":426941437_7_0" index="0" disallow="tram rail_urban rail rail_electric rail_fast ship container cable_car subway aircraft wheelchair scooter drone" speed="10.64" length="14.66" shape="456.13,275.33 454.96,276.46 451.62,277.92 447.39,278.47 442.29,278.13"/>
    </edge>
    <edge id=":426941437_2" function="internal">
        <lane id=":426941437_2_0" index="0" disallow="tram rail_urban rail rail_electric rail_fast ship container cable_car subway aircraft wheelchair scooter drone" speed="9.49" length="12.94" shape="442.74,274.96 446.94,275.28 450.35,274.94 452.97,273.92 454.81,272.23"/>
    </edge>
    <edge id=":426941437_3" function="internal">
        <lane id=":426941437_3_0" index="0" disallow="tram rail_urban rail rail_electric rail_fast ship container cable_car subway aircraft wheelchair scooter drone" speed="6.55" length="12.68" shape="442.74,274.96 445.12,275.93 445.83,277.93 444.89,280.96 442.29,285.02"/>
    </edge>
    <edge id=":426941437_4" function="internal">
        <lane id=":426941437_4_0" index="0" disallow="tram rail_urban rail rail_electric rail_fast ship container cable_car subway aircraft wheelchair scooter drone" speed="4.65" length="8.88" shape="451.17,285.05 442.29,285.02"/>
    </edge>
    <edge id=":426941437_5" function="internal">
        <lane id=":426941437_5_0" index="0" disallow="tram rail_urban rail rail_electric rail_fast ship container cable_car subway aircraft wheelchair scooter drone" speed="6.77" length="13.97" shape="451.17,285.05 452.17,282.72 451.02,280.79 447.73,279.26 442.29,278.13"/>
    </edge>
    <edge id=":426941437_6" function="internal">
        <lane id=":426941437_6_0" index="0" disallow="tram rail_urban rail rail_electric rail_fast ship container cable_car subway aircraft wheelchair scooter drone" speed="27.78" length="13.48" shape="451.17,285.05 452.67,281.99 453.09,278.72 453.46,275.41 454.81,272.23"/>
    </edge>
    <edge id=":529003453_0" function="internal">