<configuration>
    <input>
        <net-file value="intersection.net.xml"/>
        <route-files value="routes.rou.xml"/>
    </input>
    <time>
        <begin value="0"/>
        <end value="600"/>
    </time>
    <report>
        <verbose value="false"/>
        <no-step-log value="true"/>
    </report>
</configuration>
